<?xml version="1.0" encoding="UTF-8"?>

<!-- generated on qua 18 set 2024 14:24:27 by Eclipse SUMO netedit Version 1.4.0
<configuration xmlns:xsi="http://www.w3.org/2001/XMLSchema-instance" xsi:noNamespaceSchemaLocation="http://sumo.dlr.de/xsd/netconvertConfiguration.xsd">

    <output>
        <output-file value="/home/perazzo/Projetos/vehicle_tracker/network.net.xml"/>
    </output>

    <processing>
        <offset.disable-normalization value="true"/>
    </processing>

    <junctions>
        <no-turnarounds value="true"/>
    </junctions>

    <netedit>
        <route-files value="/home/perazzo/Projetos/vehicle_tracker/demanda.rou.xml"/>
    </netedit>

    <report>
        <aggregate-warnings value="5"/>
    </report>

</configuration>
-->

<routes xmlns:xsi="http://www.w3.org/2001/XMLSchema-instance" xsi:noNamespaceSchemaLocation="http://sumo.dlr.de/xsd/routes_file.xsd">
    <route edges="gneE0 gneE1" color="yellow" id="route_0"/>
    <vType id="carro" accel="0.6" decel="0.5" sigma="0.5" length="5" maxSpeed="2"/>
    <vehicle id="vehicle_0" depart="0.00" route="route_0" type="carro" />
    <flow id="flow0" begin="0" end="60" type="carro" vehsPerHour="500" route="route_0"> </flow>
</routes>
