<?xml version="1.0" encoding="UTF-8"?>

<!-- generated on ter 24 set 2024 15:01:14 by Eclipse SUMO netedit Version 1.4.0
<configuration xmlns:xsi="http://www.w3.org/2001/XMLSchema-instance" xsi:noNamespaceSchemaLocation="http://sumo.dlr.de/xsd/netconvertConfiguration.xsd">

    <output>
        <output-file value="/home/perazzo/Projetos/vehicle_tracker/network.dupla.xml.net.xml"/>
    </output>

    <processing>
        <offset.disable-normalization value="true"/>
    </processing>

    <junctions>
        <no-turnarounds value="true"/>
    </junctions>

    <report>
        <aggregate-warnings value="5"/>
    </report>

</configuration>
-->

<net version="1.3" junctionCornerDetail="5" limitTurnSpeed="5.50" xmlns:xsi="http://www.w3.org/2001/XMLSchema-instance" xsi:noNamespaceSchemaLocation="http://sumo.dlr.de/xsd/net_file.xsd">

    <location netOffset="0.00,0.00" convBoundary="0.00,33.61,0.00,89.16" origBoundary="10000000000.00,10000000000.00,-10000000000.00,-10000000000.00" projParameter="!"/>

    <edge id=":gneJ1_0" function="internal">
        <lane id=":gneJ1_0_0" index="0" speed="13.89" length="0.10" shape="-1.60,62.53 -1.60,62.53"/>
    </edge>
    <edge id=":gneJ1_1" function="internal">
        <lane id=":gneJ1_1_0" index="0" speed="13.89" length="0.10" shape="1.60,62.53 1.60,62.53"/>
    </edge>

    <edge id="-gneE0" from="gneJ1" to="gneJ0" priority="-1">
        <lane id="-gneE0_0" index="0" speed="13.89" length="26.63" shape="1.60,62.53 1.60,89.16"/>
    </edge>
    <edge id="-gneE1" from="gneJ2" to="gneJ1" priority="-1">
        <lane id="-gneE1_0" index="0" speed="13.89" length="28.92" shape="1.60,33.61 1.60,62.53"/>
    </edge>
    <edge id="gneE0" from="gneJ0" to="gneJ1" priority="-1">
        <lane id="gneE0_0" index="0" speed="13.89" length="26.63" shape="-1.60,89.16 -1.60,62.53"/>
    </edge>
    <edge id="gneE1" from="gneJ1" to="gneJ2" priority="-1">
        <lane id="gneE1_0" index="0" speed="13.89" length="28.92" shape="-1.60,62.53 -1.60,33.61"/>
    </edge>

    <junction id="gneJ0" type="dead_end" x="0.00" y="89.16" incLanes="-gneE0_0" intLanes="" shape="0.00,89.16 3.20,89.16 0.00,89.16"/>
    <junction id="gneJ1" type="priority" x="0.00" y="62.53" incLanes="gneE0_0 -gneE1_0" intLanes=":gneJ1_0_0 :gneJ1_1_0" shape="-3.20,62.53 3.20,62.53 -3.20,62.53">
        <request index="0" response="00" foes="00" cont="0"/>
        <request index="1" response="00" foes="00" cont="0"/>
    </junction>
    <junction id="gneJ2" type="dead_end" x="0.00" y="33.61" incLanes="gneE1_0" intLanes="" shape="0.00,33.61 -3.20,33.61 0.00,33.61"/>

    <connection from="-gneE1" to="-gneE0" fromLane="0" toLane="0" via=":gneJ1_1_0" dir="s" state="M"/>
    <connection from="gneE0" to="gneE1" fromLane="0" toLane="0" via=":gneJ1_0_0" dir="s" state="M"/>

    <connection from=":gneJ1_0" to="gneE1" fromLane="0" toLane="0" dir="s" state="M"/>
    <connection from=":gneJ1_1" to="-gneE0" fromLane="0" toLane="0" dir="s" state="M"/>

</net>
